FoamFile {
    version 2.0;
    format ascii;
    class dictionary;
    object thermophysicalProperties;
}
thermoType {
    type heSolidThermo;
    mixture pureMixture;
    specie specie;
    transport constIso;
    thermo hConst;
    equationOfState rhoConst;
    energy sensibleEnthalpy;
}
mixture {
    specie {
        nMoles 1.0;
        molWeight 26.98;
    }
    transport {
        kappa 235.0;
    }
    thermodynamics {
        Cp 897.0;
        Hf 0.0;
    }
    equationOfState {
        rho 2700.0;
    }
}
