FoamFile {
    version 2.0;
    format ascii;
    class dictionary;
    object fvSolution;
}
solvers {
    U {
        solver smoothSolver;
        tolerance 1e-05;
        relTol 1e-05;
        smoother GaussSeidel;
    }
    rho {
        solver GAMG;
        tolerance 1e-06;
        relTol 1e-05;
        smoother GaussSeidel;
        nPreSweeps 0;
        nPostSweeps 0;
        cacheAgglomeration on;
        agglomerator faceAreaPair;
        nCellsInCoarsestLevel 10;
        mergeLevels 1;
    }
    p_rgh {
        solver GAMG;
        tolerance 1e-06;
        relTol 1e-05;
        smoother GaussSeidel;
        nPreSweeps 0;
        nPostSweeps 0;
        cacheAgglomeration on;
        agglomerator faceAreaPair;
        nCellsInCoarsestLevel 10;
        mergeLevels 1;
    }
    h {
        solver smoothSolver;
        tolerance 1e-05;
        relTol 1e-05;
        smoother GaussSeidel;
    }
    e {
        solver smoothSolver;
        tolerance 1e-05;
        relTol 1e-05;
        smoother GaussSeidel;
    }
}
relaxationFactors {
    dynamic on;
    max {
        U 0.3;
    }
    writeRelaxationParameters on;
    fields {
        p_rgh 0.9;
        rho 0.01;
    }
    equations {
        U 0.3;
        h 0.9;
    }
}
SIMPLE {
    nNonOrthogonalCorrectors 0;
    pRefCell 0;
    pRefValue 0.0;
    rhoMin rhoMin [1 -3 0 0 0] 0.5;
    rhoMax rhoMax [1 -3 0 0 0] 2.0;
    momentumPredictor on;
    residualControl {
        U 1e-05;
        "p.*" 1e-05;
    }
}
